<?xml version="1.0" encoding="UTF-8" standalone="yes"?>
<template encoding-version="1.2">
    <description></description>
    <groupId>6d128ba0-cb9a-3d88-e548-d5206f92e377</groupId>
    <name>SDK_flow</name>
    <snippet>
        <connections>
            <id>14113a54-19e0-3267-0000-000000000000</id>
            <parentGroupId>540287a8-7896-3844-0000-000000000000</parentGroupId>
            <backPressureDataSizeThreshold>1 GB</backPressureDataSizeThreshold>
            <backPressureObjectThreshold>10000</backPressureObjectThreshold>
            <bends>
                <x>2420.74291707449</x>
                <y>409.40904879283073</y>
            </bends>
            <bends>
                <x>2420.74291707449</x>
                <y>459.40904879283073</y>
            </bends>
            <destination>
                <groupId>540287a8-7896-3844-0000-000000000000</groupId>
                <id>e6659e0e-1be6-3487-0000-000000000000</id>
                <type>PROCESSOR</type>
            </destination>
            <flowFileExpiration>0 sec</flowFileExpiration>
            <labelIndex>1</labelIndex>
            <loadBalanceCompression>DO_NOT_COMPRESS</loadBalanceCompression>
            <loadBalancePartitionAttribute></loadBalancePartitionAttribute>
            <loadBalanceStatus>LOAD_BALANCE_NOT_CONFIGURED</loadBalanceStatus>
            <loadBalanceStrategy>DO_NOT_LOAD_BALANCE</loadBalanceStrategy>
            <name></name>
            <selectedRelationships>failure</selectedRelationships>
            <source>
                <groupId>540287a8-7896-3844-0000-000000000000</groupId>
                <id>e6659e0e-1be6-3487-0000-000000000000</id>
                <type>PROCESSOR</type>
            </source>
            <zIndex>0</zIndex>
        </connections>
        <connections>
            <id>450822e6-1421-3689-0000-000000000000</id>
            <parentGroupId>540287a8-7896-3844-0000-000000000000</parentGroupId>
            <backPressureDataSizeThreshold>1 GB</backPressureDataSizeThreshold>
            <backPressureObjectThreshold>10000</backPressureObjectThreshold>
            <destination>
                <groupId>540287a8-7896-3844-0000-000000000000</groupId>
                <id>b5159db4-4a31-3d46-0000-000000000000</id>
                <type>PROCESSOR</type>
            </destination>
            <flowFileExpiration>0 sec</flowFileExpiration>
            <labelIndex>1</labelIndex>
            <loadBalanceCompression>DO_NOT_COMPRESS</loadBalanceCompression>
            <loadBalancePartitionAttribute></loadBalancePartitionAttribute>
            <loadBalanceStatus>LOAD_BALANCE_NOT_CONFIGURED</loadBalanceStatus>
            <loadBalanceStrategy>DO_NOT_LOAD_BALANCE</loadBalanceStrategy>
            <name></name>
            <source>
                <groupId>f8d2965b-ce1e-3fc2-0000-000000000000</groupId>
                <id>e62b485f-5efb-3ef2-0000-000000000000</id>
                <type>OUTPUT_PORT</type>
            </source>
            <zIndex>0</zIndex>
        </connections>
        <connections>
            <id>815fe857-0157-37e4-0000-000000000000</id>
            <parentGroupId>540287a8-7896-3844-0000-000000000000</parentGroupId>
            <backPressureDataSizeThreshold>1 GB</backPressureDataSizeThreshold>
            <backPressureObjectThreshold>10000</backPressureObjectThreshold>
            <destination>
                <groupId>540287a8-7896-3844-0000-000000000000</groupId>
                <id>7cb6e226-12b4-31ef-0000-000000000000</id>
                <type>PROCESSOR</type>
            </destination>
            <flowFileExpiration>0 sec</flowFileExpiration>
            <labelIndex>1</labelIndex>
            <loadBalanceCompression>DO_NOT_COMPRESS</loadBalanceCompression>
            <loadBalancePartitionAttribute></loadBalancePartitionAttribute>
            <loadBalanceStatus>LOAD_BALANCE_NOT_CONFIGURED</loadBalanceStatus>
            <loadBalanceStrategy>DO_NOT_LOAD_BALANCE</loadBalanceStrategy>
            <name></name>
            <selectedRelationships>success</selectedRelationships>
            <source>
                <groupId>540287a8-7896-3844-0000-000000000000</groupId>
                <id>f60f608f-d7da-392a-0000-000000000000</id>
                <type>PROCESSOR</type>
            </source>
            <zIndex>0</zIndex>
        </connections>
        <connections>
            <id>88408e4f-93f0-35dc-0000-000000000000</id>
            <parentGroupId>540287a8-7896-3844-0000-000000000000</parentGroupId>
            <backPressureDataSizeThreshold>1 GB</backPressureDataSizeThreshold>
            <backPressureObjectThreshold>10000</backPressureObjectThreshold>
            <destination>
                <groupId>540287a8-7896-3844-0000-000000000000</groupId>
                <id>f60f608f-d7da-392a-0000-000000000000</id>
                <type>PROCESSOR</type>
            </destination>
            <flowFileExpiration>0 sec</flowFileExpiration>
            <labelIndex>1</labelIndex>
            <loadBalanceCompression>DO_NOT_COMPRESS</loadBalanceCompression>
            <loadBalancePartitionAttribute></loadBalancePartitionAttribute>
            <loadBalanceStatus>LOAD_BALANCE_NOT_CONFIGURED</loadBalanceStatus>
            <loadBalanceStrategy>DO_NOT_LOAD_BALANCE</loadBalanceStrategy>
            <name></name>
            <selectedRelationships>success</selectedRelationships>
            <source>
                <groupId>540287a8-7896-3844-0000-000000000000</groupId>
                <id>b5159db4-4a31-3d46-0000-000000000000</id>
                <type>PROCESSOR</type>
            </source>
            <zIndex>0</zIndex>
        </connections>
        <connections>
            <id>a5e36fcf-9e1b-3cfb-0000-000000000000</id>
            <parentGroupId>540287a8-7896-3844-0000-000000000000</parentGroupId>
            <backPressureDataSizeThreshold>1 GB</backPressureDataSizeThreshold>
            <backPressureObjectThreshold>10000</backPressureObjectThreshold>
            <destination>
                <groupId>540287a8-7896-3844-0000-000000000000</groupId>
                <id>e6659e0e-1be6-3487-0000-000000000000</id>
                <type>PROCESSOR</type>
            </destination>
            <flowFileExpiration>0 sec</flowFileExpiration>
            <labelIndex>1</labelIndex>
            <loadBalanceCompression>DO_NOT_COMPRESS</loadBalanceCompression>
            <loadBalancePartitionAttribute></loadBalancePartitionAttribute>
            <loadBalanceStatus>LOAD_BALANCE_NOT_CONFIGURED</loadBalanceStatus>
            <loadBalanceStrategy>DO_NOT_LOAD_BALANCE</loadBalanceStrategy>
            <name></name>
            <selectedRelationships>success</selectedRelationships>
            <source>
                <groupId>540287a8-7896-3844-0000-000000000000</groupId>
                <id>37883e19-e8d1-3b5a-0000-000000000000</id>
                <type>PROCESSOR</type>
            </source>
            <zIndex>0</zIndex>
        </connections>
        <connections>
            <id>a76efc14-93bc-3089-0000-000000000000</id>
            <parentGroupId>540287a8-7896-3844-0000-000000000000</parentGroupId>
            <backPressureDataSizeThreshold>1 GB</backPressureDataSizeThreshold>
            <backPressureObjectThreshold>10000</backPressureObjectThreshold>
            <destination>
                <groupId>540287a8-7896-3844-0000-000000000000</groupId>
                <id>37883e19-e8d1-3b5a-0000-000000000000</id>
                <type>PROCESSOR</type>
            </destination>
            <flowFileExpiration>0 sec</flowFileExpiration>
            <labelIndex>1</labelIndex>
            <loadBalanceCompression>DO_NOT_COMPRESS</loadBalanceCompression>
            <loadBalancePartitionAttribute></loadBalancePartitionAttribute>
            <loadBalanceStatus>LOAD_BALANCE_NOT_CONFIGURED</loadBalanceStatus>
            <loadBalanceStrategy>DO_NOT_LOAD_BALANCE</loadBalanceStrategy>
            <name></name>
            <selectedRelationships>success</selectedRelationships>
            <source>
                <groupId>540287a8-7896-3844-0000-000000000000</groupId>
                <id>7cb6e226-12b4-31ef-0000-000000000000</id>
                <type>PROCESSOR</type>
            </source>
            <zIndex>0</zIndex>
        </connections>
        <connections>
            <id>c01e1885-17ff-3d57-0000-000000000000</id>
            <parentGroupId>540287a8-7896-3844-0000-000000000000</parentGroupId>
            <backPressureDataSizeThreshold>1 GB</backPressureDataSizeThreshold>
            <backPressureObjectThreshold>10000</backPressureObjectThreshold>
            <destination>
                <groupId>f8d2965b-ce1e-3fc2-0000-000000000000</groupId>
                <id>ba64a80d-1dd4-3875-0000-000000000000</id>
                <type>INPUT_PORT</type>
            </destination>
            <flowFileExpiration>0 sec</flowFileExpiration>
            <labelIndex>1</labelIndex>
            <loadBalanceCompression>DO_NOT_COMPRESS</loadBalanceCompression>
            <loadBalancePartitionAttribute></loadBalancePartitionAttribute>
            <loadBalanceStatus>LOAD_BALANCE_NOT_CONFIGURED</loadBalanceStatus>
            <loadBalanceStrategy>DO_NOT_LOAD_BALANCE</loadBalanceStrategy>
            <name></name>
            <source>
                <groupId>8472f9b5-33f4-371e-0000-000000000000</groupId>
                <id>d53dbf1b-b12b-303b-0000-000000000000</id>
                <type>OUTPUT_PORT</type>
            </source>
            <zIndex>0</zIndex>
        </connections>
        <connections>
            <id>d31a45ef-8cf8-3c83-0000-000000000000</id>
            <parentGroupId>540287a8-7896-3844-0000-000000000000</parentGroupId>
            <backPressureDataSizeThreshold>1 GB</backPressureDataSizeThreshold>
            <backPressureObjectThreshold>10000</backPressureObjectThreshold>
            <bends>
                <x>1353.8841438130091</x>
                <y>0.0</y>
            </bends>
            <bends>
                <x>1595.6166877583216</x>
                <y>12.810356140136719</y>
            </bends>
            <destination>
                <groupId>540287a8-7896-3844-0000-000000000000</groupId>
                <id>7cb6e226-12b4-31ef-0000-000000000000</id>
                <type>PROCESSOR</type>
            </destination>
            <flowFileExpiration>0 sec</flowFileExpiration>
            <labelIndex>1</labelIndex>
            <loadBalanceCompression>DO_NOT_COMPRESS</loadBalanceCompression>
            <loadBalancePartitionAttribute></loadBalancePartitionAttribute>
            <loadBalanceStatus>LOAD_BALANCE_NOT_CONFIGURED</loadBalanceStatus>
            <loadBalanceStrategy>DO_NOT_LOAD_BALANCE</loadBalanceStrategy>
            <name></name>
            <selectedRelationships>failure</selectedRelationships>
            <source>
                <groupId>540287a8-7896-3844-0000-000000000000</groupId>
                <id>7cb6e226-12b4-31ef-0000-000000000000</id>
                <type>PROCESSOR</type>
            </source>
            <zIndex>0</zIndex>
        </connections>
        <connections>
            <id>d4084172-16e7-3545-0000-000000000000</id>
            <parentGroupId>540287a8-7896-3844-0000-000000000000</parentGroupId>
            <backPressureDataSizeThreshold>1 GB</backPressureDataSizeThreshold>
            <backPressureObjectThreshold>10000</backPressureObjectThreshold>
            <bends>
                <x>1579.045883958632</x>
                <y>569.6150197987861</y>
            </bends>
            <bends>
                <x>1385.207749193007</x>
                <y>575.2621450429267</y>
            </bends>
            <destination>
                <groupId>540287a8-7896-3844-0000-000000000000</groupId>
                <id>f60f608f-d7da-392a-0000-000000000000</id>
                <type>PROCESSOR</type>
            </destination>
            <flowFileExpiration>0 sec</flowFileExpiration>
            <labelIndex>1</labelIndex>
            <loadBalanceCompression>DO_NOT_COMPRESS</loadBalanceCompression>
            <loadBalancePartitionAttribute></loadBalancePartitionAttribute>
            <loadBalanceStatus>LOAD_BALANCE_NOT_CONFIGURED</loadBalanceStatus>
            <loadBalanceStrategy>DO_NOT_LOAD_BALANCE</loadBalanceStrategy>
            <name></name>
            <selectedRelationships>failure</selectedRelationships>
            <source>
                <groupId>540287a8-7896-3844-0000-000000000000</groupId>
                <id>f60f608f-d7da-392a-0000-000000000000</id>
                <type>PROCESSOR</type>
            </source>
            <zIndex>0</zIndex>
        </connections>
        <controllerServices>
            <id>eed0139a-5c2a-35fd-0000-000000000000</id>
            <parentGroupId>540287a8-7896-3844-0000-000000000000</parentGroupId>
            <bundle>
                <artifact>nifi-dbcp-service-nar</artifact>
                <group>org.apache.nifi</group>
                <version>1.8.0</version>
            </bundle>
            <comments></comments>
            <descriptors>
                <entry>
                    <key>Database Connection URL</key>
                    <value>
                        <name>Database Connection URL</name>
                    </value>
                </entry>
                <entry>
                    <key>Database Driver Class Name</key>
                    <value>
                        <name>Database Driver Class Name</name>
                    </value>
                </entry>
                <entry>
                    <key>database-driver-locations</key>
                    <value>
                        <name>database-driver-locations</name>
                    </value>
                </entry>
                <entry>
                    <key>Database User</key>
                    <value>
                        <name>Database User</name>
                    </value>
                </entry>
                <entry>
                    <key>Password</key>
                    <value>
                        <name>Password</name>
                    </value>
                </entry>
                <entry>
                    <key>Max Wait Time</key>
                    <value>
                        <name>Max Wait Time</name>
                    </value>
                </entry>
                <entry>
                    <key>Max Total Connections</key>
                    <value>
                        <name>Max Total Connections</name>
                    </value>
                </entry>
                <entry>
                    <key>Validation-query</key>
                    <value>
                        <name>Validation-query</name>
                    </value>
                </entry>
            </descriptors>
            <name>Redshift - Prod</name>
            <persistsState>false</persistsState>
            <properties>
                <entry>
                    <key>Database Connection URL</key>
                    <value>${REDSHIFT_CONNECTION_URL}</value>
                </entry>
                <entry>
                    <key>Database Driver Class Name</key>
                    <value>${REDSHIFT_DRIVER_CLASS_NAME}</value>
                </entry>
                <entry>
                    <key>database-driver-locations</key>
                    <value>${REDSHIFT_DRIVER_LOCATION}</value>
                </entry>
                <entry>
                    <key>Database User</key>
                    <value>${REDSHIFT_USER}</value>
                </entry>
                <entry>
                    <key>Password</key>
                </entry>
                <entry>
                    <key>Max Wait Time</key>
                    <value>500 millis</value>
                </entry>
                <entry>
                    <key>Max Total Connections</key>
                    <value>8</value>
                </entry>
                <entry>
                    <key>Validation-query</key>
                </entry>
            </properties>
            <state>ENABLED</state>
            <type>org.apache.nifi.dbcp.DBCPConnectionPool</type>
        </controllerServices>
        <controllerServices>
            <id>faaab3f5-e8e3-31bf-0000-000000000000</id>
            <parentGroupId>540287a8-7896-3844-0000-000000000000</parentGroupId>
            <bundle>
                <artifact>nifi-aws-nar</artifact>
                <group>org.apache.nifi</group>
                <version>1.8.0</version>
            </bundle>
            <comments></comments>
            <descriptors>
                <entry>
                    <key>default-credentials</key>
                    <value>
                        <name>default-credentials</name>
                    </value>
                </entry>
                <entry>
                    <key>Access Key</key>
                    <value>
                        <name>Access Key</name>
                    </value>
                </entry>
                <entry>
                    <key>Secret Key</key>
                    <value>
                        <name>Secret Key</name>
                    </value>
                </entry>
                <entry>
                    <key>Credentials File</key>
                    <value>
                        <name>Credentials File</name>
                    </value>
                </entry>
                <entry>
                    <key>profile-name</key>
                    <value>
                        <name>profile-name</name>
                    </value>
                </entry>
                <entry>
                    <key>anonymous-credentials</key>
                    <value>
                        <name>anonymous-credentials</name>
                    </value>
                </entry>
                <entry>
                    <key>Assume Role ARN</key>
                    <value>
                        <name>Assume Role ARN</name>
                    </value>
                </entry>
                <entry>
                    <key>Assume Role Session Name</key>
                    <value>
                        <name>Assume Role Session Name</name>
                    </value>
                </entry>
                <entry>
                    <key>Session Time</key>
                    <value>
                        <name>Session Time</name>
                    </value>
                </entry>
                <entry>
                    <key>assume-role-external-id</key>
                    <value>
                        <name>assume-role-external-id</name>
                    </value>
                </entry>
                <entry>
                    <key>assume-role-proxy-host</key>
                    <value>
                        <name>assume-role-proxy-host</name>
                    </value>
                </entry>
                <entry>
                    <key>assume-role-proxy-port</key>
                    <value>
                        <name>assume-role-proxy-port</name>
                    </value>
                </entry>
            </descriptors>
            <name>Credenciales AWS - Usuario Prod</name>
            <persistsState>false</persistsState>
            <properties>
                <entry>
                    <key>default-credentials</key>
                    <value>false</value>
                </entry>
                <entry>
                    <key>Access Key</key>
                </entry>
                <entry>
                    <key>Secret Key</key>
                </entry>
                <entry>
                    <key>Credentials File</key>
                </entry>
                <entry>
                    <key>profile-name</key>
                </entry>
                <entry>
                    <key>anonymous-credentials</key>
                    <value>false</value>
                </entry>
                <entry>
                    <key>Assume Role ARN</key>
                </entry>
                <entry>
                    <key>Assume Role Session Name</key>
                </entry>
                <entry>
                    <key>Session Time</key>
                    <value>3600</value>
                </entry>
                <entry>
                    <key>assume-role-external-id</key>
                </entry>
                <entry>
                    <key>assume-role-proxy-host</key>
                </entry>
                <entry>
                    <key>assume-role-proxy-port</key>
                </entry>
            </properties>
            <state>ENABLED</state>
            <type>org.apache.nifi.processors.aws.credentials.provider.service.AWSCredentialsProviderControllerService</type>
        </controllerServices>
        <processGroups>
            <id>8472f9b5-33f4-371e-0000-000000000000</id>
            <parentGroupId>540287a8-7896-3844-0000-000000000000</parentGroupId>
            <position>
                <x>0.0</x>
                <y>30.053475929509432</y>
            </position>
            <comments></comments>
            <contents>
                <connections>
                    <id>249d5704-1e68-3aa9-0000-000000000000</id>
                    <parentGroupId>8472f9b5-33f4-371e-0000-000000000000</parentGroupId>
                    <backPressureDataSizeThreshold>1 GB</backPressureDataSizeThreshold>
                    <backPressureObjectThreshold>10000</backPressureObjectThreshold>
                    <destination>
                        <groupId>8472f9b5-33f4-371e-0000-000000000000</groupId>
                        <id>eb00eb3d-c206-3098-0000-000000000000</id>
                        <type>PROCESSOR</type>
                    </destination>
                    <flowFileExpiration>0 sec</flowFileExpiration>
                    <labelIndex>1</labelIndex>
                    <loadBalanceCompression>DO_NOT_COMPRESS</loadBalanceCompression>
                    <loadBalancePartitionAttribute></loadBalancePartitionAttribute>
                    <loadBalanceStatus>LOAD_BALANCE_NOT_CONFIGURED</loadBalanceStatus>
                    <loadBalanceStrategy>DO_NOT_LOAD_BALANCE</loadBalanceStrategy>
                    <name></name>
                    <selectedRelationships>output stream</selectedRelationships>
                    <source>
                        <groupId>8472f9b5-33f4-371e-0000-000000000000</groupId>
                        <id>933f2c54-9aad-33cf-0000-000000000000</id>
                        <type>PROCESSOR</type>
                    </source>
                    <zIndex>0</zIndex>
                </connections>
                <connections>
                    <id>2dccac4a-89a5-3a40-0000-000000000000</id>
                    <parentGroupId>8472f9b5-33f4-371e-0000-000000000000</parentGroupId>
                    <backPressureDataSizeThreshold>1 GB</backPressureDataSizeThreshold>
                    <backPressureObjectThreshold>10000</backPressureObjectThreshold>
                    <bends>
                        <x>2579.8224125798943</x>
                        <y>4.28923616709443</y>
                    </bends>
                    <bends>
                        <x>2579.8224125798943</x>
                        <y>54.28923616709443</y>
                    </bends>
                    <destination>
                        <groupId>8472f9b5-33f4-371e-0000-000000000000</groupId>
                        <id>da0ceb21-b386-3f27-0000-000000000000</id>
                        <type>PROCESSOR</type>
                    </destination>
                    <flowFileExpiration>0 sec</flowFileExpiration>
                    <labelIndex>1</labelIndex>
                    <loadBalanceCompression>DO_NOT_COMPRESS</loadBalanceCompression>
                    <loadBalancePartitionAttribute></loadBalancePartitionAttribute>
                    <loadBalanceStatus>LOAD_BALANCE_NOT_CONFIGURED</loadBalanceStatus>
                    <loadBalanceStrategy>DO_NOT_LOAD_BALANCE</loadBalanceStrategy>
                    <name></name>
                    <selectedRelationships>nonzero status</selectedRelationships>
                    <source>
                        <groupId>8472f9b5-33f4-371e-0000-000000000000</groupId>
                        <id>da0ceb21-b386-3f27-0000-000000000000</id>
                        <type>PROCESSOR</type>
                    </source>
                    <zIndex>0</zIndex>
                </connections>
                <connections>
                    <id>3d9955d7-4d29-3f5e-0000-000000000000</id>
                    <parentGroupId>8472f9b5-33f4-371e-0000-000000000000</parentGroupId>
                    <backPressureDataSizeThreshold>1 GB</backPressureDataSizeThreshold>
                    <backPressureObjectThreshold>10000</backPressureObjectThreshold>
                    <bends>
                        <x>1578.1617431640625</x>
                        <y>-73.03996276855469</y>
                    </bends>
                    <bends>
                        <x>1751.6827392578125</x>
                        <y>-75.2934799194336</y>
                    </bends>
                    <destination>
                        <groupId>8472f9b5-33f4-371e-0000-000000000000</groupId>
                        <id>b42a6821-daef-34be-0000-000000000000</id>
                        <type>PROCESSOR</type>
                    </destination>
                    <flowFileExpiration>0 sec</flowFileExpiration>
                    <labelIndex>1</labelIndex>
                    <loadBalanceCompression>DO_NOT_COMPRESS</loadBalanceCompression>
                    <loadBalancePartitionAttribute></loadBalancePartitionAttribute>
                    <loadBalanceStatus>LOAD_BALANCE_NOT_CONFIGURED</loadBalanceStatus>
                    <loadBalanceStrategy>DO_NOT_LOAD_BALANCE</loadBalanceStrategy>
                    <name></name>
                    <selectedRelationships>nonzero status</selectedRelationships>
                    <source>
                        <groupId>8472f9b5-33f4-371e-0000-000000000000</groupId>
                        <id>b42a6821-daef-34be-0000-000000000000</id>
                        <type>PROCESSOR</type>
                    </source>
                    <zIndex>0</zIndex>
                </connections>
                <connections>
                    <id>44dd77e5-b48d-30f4-0000-000000000000</id>
                    <parentGroupId>8472f9b5-33f4-371e-0000-000000000000</parentGroupId>
                    <backPressureDataSizeThreshold>1 GB</backPressureDataSizeThreshold>
                    <backPressureObjectThreshold>10000</backPressureObjectThreshold>
                    <destination>
                        <groupId>8472f9b5-33f4-371e-0000-000000000000</groupId>
                        <id>96983263-0e9a-33e6-0000-000000000000</id>
                        <type>PROCESSOR</type>
                    </destination>
                    <flowFileExpiration>0 sec</flowFileExpiration>
                    <labelIndex>1</labelIndex>
                    <loadBalanceCompression>DO_NOT_COMPRESS</loadBalanceCompression>
                    <loadBalancePartitionAttribute></loadBalancePartitionAttribute>
                    <loadBalanceStatus>LOAD_BALANCE_NOT_CONFIGURED</loadBalanceStatus>
                    <loadBalanceStrategy>DO_NOT_LOAD_BALANCE</loadBalanceStrategy>
                    <name></name>
                    <selectedRelationships>output stream</selectedRelationships>
                    <source>
                        <groupId>8472f9b5-33f4-371e-0000-000000000000</groupId>
                        <id>cdda5c1e-de16-36f2-0000-000000000000</id>
                        <type>PROCESSOR</type>
                    </source>
                    <zIndex>0</zIndex>
                </connections>
                <connections>
                    <id>5f3d22b9-fcb9-354e-0000-000000000000</id>
                    <parentGroupId>8472f9b5-33f4-371e-0000-000000000000</parentGroupId>
                    <backPressureDataSizeThreshold>1 GB</backPressureDataSizeThreshold>
                    <backPressureObjectThreshold>10000</backPressureObjectThreshold>
                    <bends>
                        <x>1185.6079701831839</x>
                        <y>273.5365727545984</y>
                    </bends>
                    <bends>
                        <x>1185.6079701831839</x>
                        <y>323.5365727545984</y>
                    </bends>
                    <destination>
                        <groupId>8472f9b5-33f4-371e-0000-000000000000</groupId>
                        <id>933f2c54-9aad-33cf-0000-000000000000</id>
                        <type>PROCESSOR</type>
                    </destination>
                    <flowFileExpiration>0 sec</flowFileExpiration>
                    <labelIndex>1</labelIndex>
                    <loadBalanceCompression>DO_NOT_COMPRESS</loadBalanceCompression>
                    <loadBalancePartitionAttribute></loadBalancePartitionAttribute>
                    <loadBalanceStatus>LOAD_BALANCE_NOT_CONFIGURED</loadBalanceStatus>
                    <loadBalanceStrategy>DO_NOT_LOAD_BALANCE</loadBalanceStrategy>
                    <name></name>
                    <selectedRelationships>nonzero status</selectedRelationships>
                    <source>
                        <groupId>8472f9b5-33f4-371e-0000-000000000000</groupId>
                        <id>933f2c54-9aad-33cf-0000-000000000000</id>
                        <type>PROCESSOR</type>
                    </source>
                    <zIndex>0</zIndex>
                </connections>
                <connections>
                    <id>731913ad-7f61-3ff1-0000-000000000000</id>
                    <parentGroupId>8472f9b5-33f4-371e-0000-000000000000</parentGroupId>
                    <backPressureDataSizeThreshold>1 GB</backPressureDataSizeThreshold>
                    <backPressureObjectThreshold>10000</backPressureObjectThreshold>